


  6  5  0  0  0  0  0  0  0  0999 V2000
   -5.3690   -1.4858    1.7609 C   0  0  0  0  0  0  0  0  0  0  0  0
   -5.5399   -2.6513    1.4671 O   0  0  0  0  0  0  0  0  0  0  0  0
   -4.6398   -1.0156    2.7877 O   0  0  0  0  0  0  0  0  0  0  0  0
   -4.6746   -0.0299    2.7895 H   0  0  0  0  0  0  0  0  0  0  0  0
   -5.9872   -0.3523    0.9681 C   0  0  0  0  0  0  0  0  0  0  0  0
   -6.0167   -0.4315   -0.2529 O   0  0  0  0  0  0  0  0  0  0  0  0
  5  6  2  0  0  0
  5  1  1  0  0  0
  1  2  2  0  0  0
  1  3  1  0  0  0
  3  4  1  0  0  0
M  END
> <minimizedAffinity>
-3.52740

> <CNNscore>
0.7661862373

> <CNNaffinity>
3.0467095375

> <CNN_VS>
2.3343470097

> <CNNaffinity_variance>
0.3953563273

$$$$
